vdd vdd 0 DC 1.8
vin a 0 DC pulse 0 1.8 0.1n 500p 0.00001f 5n 10n
.tran 0 100n
cload y 0 18fF
.measure tpdr v(a) val=0.9 fall =1 TARG v(y) val=0.9 rise=1 
.measure tpdf v(a) val=0.9 rise=1 TARG v(y) val=0.9 fall=1
.include C:\Users\Nada\Desktop\dd2project1\scmos18.txt