vdd vdd 0 dc 1.8
vin c 0 DC pulse 0 1.8 0.1n 1000p 0.00001f 5n 10n
.tran 0 100n
cload y 0 36fF
.measure tpdr v(c) val=0.9 fall=1 TARG v(y) val=0.9 rise=1
.measure tpdf v(c) val=0.9 rise=1 TARG v(y) val=0.9 fall=1
.include D:\AUC\Spring 21\DDII\Project 1\MS1\scmos18.txt