vdd vdd 0 dc 1.8
vin z 0 DC pulse 0 1.8 0.1n 0.00001f 0.00001f 5n 10n
.tran 0 100n
cload F 0 18fF
.measure tpdr v(z) val=0.9 fall=1 TARG v(F) val=0.9 rise=1
.measure tpdf v(z) val=0.9 rise=1 TARG v(F) val=0.9 fall=1
.include C:\Users\Nour\Desktop\scmos18.txt